<?xml version="1.0" encoding="UTF-8"?>

<!-- generated on 04/20/21 21:50:42 by SUMO netconvert Version 0.32.0
<?xml version="1.0" encoding="UTF-8"?>

<configuration xmlns:xsi="http://www.w3.org/2001/XMLSchema-instance" xsi:noNamespaceSchemaLocation="http://sumo.dlr.de/xsd/netconvertConfiguration.xsd">

    <input>
        <node-files value="grid.node.xml"/>
        <edge-files value="grid.edge.xml"/>
    </input>

    <output>
        <output-file value="grid.net.xml"/>
    </output>

</configuration>
-->

<net version="0.27" xmlns:xsi="http://www.w3.org/2001/XMLSchema-instance" xsi:noNamespaceSchemaLocation="http://sumo.dlr.de/xsd/net_file.xsd">

    <location netOffset="0.00,0.00" convBoundary="0.00,0.00,3000.00,3000.00" origBoundary="0.00,0.00,3000.00,3000.00" projParameter="!"/>

    <edge id=":n1_0" function="internal">
        <lane id=":n1_0_0" index="0" speed="15.00" length="29.19" shape="-8.25,9.85 -7.12,1.93 -3.73,-3.73 1.93,-7.12 9.85,-8.25"/>
    </edge>
    <edge id=":n1_1" function="internal">
        <lane id=":n1_1_0" index="0" speed="15.00" length="23.87" shape="-4.95,9.85 -4.03,3.37 -1.25,-1.25 3.37,-4.03 9.85,-4.95"/>
    </edge>
    <edge id=":n1_2" function="internal">
        <lane id=":n1_2_0" index="0" speed="15.00" length="18.55" shape="-1.65,9.85 -0.93,4.82 1.22,1.22 4.82,-0.93 9.85,-1.65"/>
    </edge>
    <edge id=":n1_3" function="internal">
        <lane id=":n1_3_0" index="0" speed="15.00" length="2.69" shape="-1.65,9.85 -0.82,8.61 0.00,8.20 0.25,8.33"/>
    </edge>
    <edge id=":n1_8" function="internal">
        <lane id=":n1_8_0" index="0" speed="15.00" length="2.13" shape="0.25,8.33 0.83,8.61 1.65,9.85"/>
    </edge>
    <edge id=":n1_4" function="internal">
        <lane id=":n1_4_0" index="0" speed="15.00" length="2.58" shape="9.85,8.25 9.15,8.35 8.65,8.65 8.35,9.15 8.25,9.85"/>
    </edge>
    <edge id=":n1_5" function="internal">
        <lane id=":n1_5_0" index="0" speed="15.00" length="7.90" shape="9.85,4.95 7.71,5.26 6.17,6.17 5.26,7.71 4.95,9.85"/>
    </edge>
    <edge id=":n1_6" function="internal">
        <lane id=":n1_6_0" index="0" speed="15.00" length="13.22" shape="9.85,1.65 6.26,2.16 3.70,3.70 2.16,6.26 1.65,9.85"/>
    </edge>
    <edge id=":n1_7" function="internal">
        <lane id=":n1_7_0" index="0" speed="15.00" length="2.20" shape="9.85,1.65 8.61,0.82 8.29,0.19"/>
    </edge>
    <edge id=":n1_9" function="internal">
        <lane id=":n1_9_0" index="0" speed="15.00" length="2.62" shape="8.29,0.19 8.20,-0.00 8.61,-0.83 9.85,-1.65"/>
    </edge>
    <edge id=":n10_0" function="internal">
        <lane id=":n10_0_0" index="0" speed="15.00" length="5.00" shape="991.75,2011.35 991.56,2009.99 990.98,2009.03 990.01,2008.44 988.65,2008.25"/>
    </edge>
    <edge id=":n10_1" function="internal">
        <lane id=":n10_1_0" index="0" speed="15.00" length="22.70" shape="991.75,2011.35 991.75,1988.65"/>
        <lane id=":n10_1_1" index="1" speed="15.00" length="22.70" shape="995.05,2011.35 995.05,1988.65"/>
        <lane id=":n10_1_2" index="2" speed="15.00" length="22.70" shape="998.35,2011.35 998.35,1988.65"/>
    </edge>
    <edge id=":n10_4" function="internal">
        <lane id=":n10_4_0" index="0" speed="15.00" length="7.47" shape="998.35,2011.35 999.16,2005.66 1000.05,2004.18"/>
    </edge>
    <edge id=":n10_5" function="internal">
        <lane id=":n10_5_0" index="0" speed="15.00" length="2.41" shape="998.35,2011.35 999.17,2010.11 1000.00,2009.70"/>
    </edge>
    <edge id=":n10_24" function="internal">
        <lane id=":n10_24_0" index="0" speed="15.00" length="13.50" shape="1000.05,2004.18 1001.60,2001.60 1005.66,1999.16 1011.35,1998.35"/>
    </edge>
    <edge id=":n10_25" function="internal">
        <lane id=":n10_25_0" index="0" speed="15.00" length="2.41" shape="1000.00,2009.70 1000.83,2010.11 1001.65,2011.35"/>
    </edge>
    <edge id=":n10_6" function="internal">
        <lane id=":n10_6_0" index="0" speed="15.00" length="5.00" shape="1011.35,2008.25 1009.99,2008.44 1009.03,2009.03 1008.44,2009.99 1008.25,2011.35"/>
    </edge>
    <edge id=":n10_7" function="internal">
        <lane id=":n10_7_0" index="0" speed="15.00" length="22.70" shape="1011.35,2008.25 988.65,2008.25"/>
        <lane id=":n10_7_1" index="1" speed="15.00" length="22.70" shape="1011.35,2004.95 988.65,2004.95"/>
        <lane id=":n10_7_2" index="2" speed="15.00" length="22.70" shape="1011.35,2001.65 988.65,2001.65"/>
    </edge>
    <edge id=":n10_10" function="internal">
        <lane id=":n10_10_0" index="0" speed="15.00" length="7.47" shape="1011.35,2001.65 1005.66,2000.84 1004.18,1999.95"/>
    </edge>
    <edge id=":n10_11" function="internal">
        <lane id=":n10_11_0" index="0" speed="15.00" length="2.41" shape="1011.35,2001.65 1010.11,2000.83 1009.70,2000.00"/>
    </edge>
    <edge id=":n10_26" function="internal">
        <lane id=":n10_26_0" index="0" speed="15.00" length="13.50" shape="1004.18,1999.95 1001.60,1998.40 999.16,1994.34 998.35,1988.65"/>
    </edge>
    <edge id=":n10_27" function="internal">
        <lane id=":n10_27_0" index="0" speed="15.00" length="2.41" shape="1009.70,2000.00 1010.11,1999.17 1011.35,1998.35"/>
    </edge>
    <edge id=":n10_12" function="internal">
        <lane id=":n10_12_0" index="0" speed="15.00" length="5.00" shape="1008.25,1988.65 1008.44,1990.01 1009.03,1990.97 1009.99,1991.56 1011.35,1991.75"/>
    </edge>
    <edge id=":n10_13" function="internal">
        <lane id=":n10_13_0" index="0" speed="15.00" length="22.70" shape="1008.25,1988.65 1008.25,2011.35"/>
        <lane id=":n10_13_1" index="1" speed="15.00" length="22.70" shape="1004.95,1988.65 1004.95,2011.35"/>
        <lane id=":n10_13_2" index="2" speed="15.00" length="22.70" shape="1001.65,1988.65 1001.65,2011.35"/>
    </edge>
    <edge id=":n10_16" function="internal">
        <lane id=":n10_16_0" index="0" speed="15.00" length="7.47" shape="1001.65,1988.65 1000.84,1994.34 999.95,1995.82"/>
    </edge>
    <edge id=":n10_17" function="internal">
        <lane id=":n10_17_0" index="0" speed="15.00" length="2.41" shape="1001.65,1988.65 1000.83,1989.89 1000.00,1990.30"/>
    </edge>
    <edge id=":n10_28" function="internal">
        <lane id=":n10_28_0" index="0" speed="15.00" length="13.50" shape="999.95,1995.82 998.40,1998.40 994.34,2000.84 988.65,2001.65"/>
    </edge>
    <edge id=":n10_29" function="internal">
        <lane id=":n10_29_0" index="0" speed="15.00" length="2.41" shape="1000.00,1990.30 999.17,1989.89 998.35,1988.65"/>
    </edge>
    <edge id=":n10_18" function="internal">
        <lane id=":n10_18_0" index="0" speed="15.00" length="5.00" shape="988.65,1991.75 990.01,1991.56 990.98,1990.97 991.56,1990.01 991.75,1988.65"/>
    </edge>
    <edge id=":n10_19" function="internal">
        <lane id=":n10_19_0" index="0" speed="15.00" length="22.70" shape="988.65,1991.75 1011.35,1991.75"/>
        <lane id=":n10_19_1" index="1" speed="15.00" length="22.70" shape="988.65,1995.05 1011.35,1995.05"/>
        <lane id=":n10_19_2" index="2" speed="15.00" length="22.70" shape="988.65,1998.35 1011.35,1998.35"/>
    </edge>
    <edge id=":n10_22" function="internal">
        <lane id=":n10_22_0" index="0" speed="15.00" length="7.47" shape="988.65,1998.35 994.34,1999.16 995.82,2000.05"/>
    </edge>
    <edge id=":n10_23" function="internal">
        <lane id=":n10_23_0" index="0" speed="15.00" length="2.41" shape="988.65,1998.35 989.89,1999.18 990.30,2000.00"/>
    </edge>
    <edge id=":n10_30" function="internal">
        <lane id=":n10_30_0" index="0" speed="15.00" length="13.50" shape="995.82,2000.05 998.40,2001.60 1000.84,2005.66 1001.65,2011.35"/>
    </edge>
    <edge id=":n10_31" function="internal">
        <lane id=":n10_31_0" index="0" speed="15.00" length="2.41" shape="990.30,2000.00 989.89,2000.83 988.65,2001.65"/>
    </edge>
    <edge id=":n11_0" function="internal">
        <lane id=":n11_0_0" index="0" speed="15.00" length="5.00" shape="1991.75,2011.35 1991.56,2009.99 1990.97,2009.03 1990.01,2008.44 1988.65,2008.25"/>
    </edge>
    <edge id=":n11_1" function="internal">
        <lane id=":n11_1_0" index="0" speed="15.00" length="22.70" shape="1991.75,2011.35 1991.75,1988.65"/>
        <lane id=":n11_1_1" index="1" speed="15.00" length="22.70" shape="1995.05,2011.35 1995.05,1988.65"/>
        <lane id=":n11_1_2" index="2" speed="15.00" length="22.70" shape="1998.35,2011.35 1998.35,1988.65"/>
    </edge>
    <edge id=":n11_4" function="internal">
        <lane id=":n11_4_0" index="0" speed="15.00" length="7.47" shape="1998.35,2011.35 1999.16,2005.66 2000.05,2004.18"/>
    </edge>
    <edge id=":n11_5" function="internal">
        <lane id=":n11_5_0" index="0" speed="15.00" length="2.41" shape="1998.35,2011.35 1999.18,2010.11 2000.00,2009.70"/>
    </edge>
    <edge id=":n11_24" function="internal">
        <lane id=":n11_24_0" index="0" speed="15.00" length="13.50" shape="2000.05,2004.18 2001.60,2001.60 2005.66,1999.16 2011.35,1998.35"/>
    </edge>
    <edge id=":n11_25" function="internal">
        <lane id=":n11_25_0" index="0" speed="15.00" length="2.41" shape="2000.00,2009.70 2000.83,2010.11 2001.65,2011.35"/>
    </edge>
    <edge id=":n11_6" function="internal">
        <lane id=":n11_6_0" index="0" speed="15.00" length="5.00" shape="2011.35,2008.25 2009.99,2008.44 2009.03,2009.03 2008.44,2009.99 2008.25,2011.35"/>
    </edge>
    <edge id=":n11_7" function="internal">
        <lane id=":n11_7_0" index="0" speed="15.00" length="22.70" shape="2011.35,2008.25 1988.65,2008.25"/>
        <lane id=":n11_7_1" index="1" speed="15.00" length="22.70" shape="2011.35,2004.95 1988.65,2004.95"/>
        <lane id=":n11_7_2" index="2" speed="15.00" length="22.70" shape="2011.35,2001.65 1988.65,2001.65"/>
    </edge>
    <edge id=":n11_10" function="internal">
        <lane id=":n11_10_0" index="0" speed="15.00" length="7.47" shape="2011.35,2001.65 2005.66,2000.84 2004.18,1999.95"/>
    </edge>
    <edge id=":n11_11" function="internal">
        <lane id=":n11_11_0" index="0" speed="15.00" length="2.41" shape="2011.35,2001.65 2010.11,2000.83 2009.70,2000.00"/>
    </edge>
    <edge id=":n11_26" function="internal">
        <lane id=":n11_26_0" index="0" speed="15.00" length="13.50" shape="2004.18,1999.95 2001.60,1998.40 1999.16,1994.34 1998.35,1988.65"/>
    </edge>
    <edge id=":n11_27" function="internal">
        <lane id=":n11_27_0" index="0" speed="15.00" length="2.41" shape="2009.70,2000.00 2010.11,1999.17 2011.35,1998.35"/>
    </edge>
    <edge id=":n11_12" function="internal">
        <lane id=":n11_12_0" index="0" speed="15.00" length="5.00" shape="2008.25,1988.65 2008.44,1990.01 2009.03,1990.97 2009.99,1991.56 2011.35,1991.75"/>
    </edge>
    <edge id=":n11_13" function="internal">
        <lane id=":n11_13_0" index="0" speed="15.00" length="22.70" shape="2008.25,1988.65 2008.25,2011.35"/>
        <lane id=":n11_13_1" index="1" speed="15.00" length="22.70" shape="2004.95,1988.65 2004.95,2011.35"/>
        <lane id=":n11_13_2" index="2" speed="15.00" length="22.70" shape="2001.65,1988.65 2001.65,2011.35"/>
    </edge>
    <edge id=":n11_16" function="internal">
        <lane id=":n11_16_0" index="0" speed="15.00" length="7.47" shape="2001.65,1988.65 2000.84,1994.34 1999.95,1995.82"/>
    </edge>
    <edge id=":n11_17" function="internal">
        <lane id=":n11_17_0" index="0" speed="15.00" length="2.41" shape="2001.65,1988.65 2000.83,1989.89 2000.00,1990.30"/>
    </edge>
    <edge id=":n11_28" function="internal">
        <lane id=":n11_28_0" index="0" speed="15.00" length="13.50" shape="1999.95,1995.82 1998.40,1998.40 1994.34,2000.84 1988.65,2001.65"/>
    </edge>
    <edge id=":n11_29" function="internal">
        <lane id=":n11_29_0" index="0" speed="15.00" length="2.41" shape="2000.00,1990.30 1999.17,1989.89 1998.35,1988.65"/>
    </edge>
    <edge id=":n11_18" function="internal">
        <lane id=":n11_18_0" index="0" speed="15.00" length="5.00" shape="1988.65,1991.75 1990.01,1991.56 1990.97,1990.97 1991.56,1990.01 1991.75,1988.65"/>
    </edge>
    <edge id=":n11_19" function="internal">
        <lane id=":n11_19_0" index="0" speed="15.00" length="22.70" shape="1988.65,1991.75 2011.35,1991.75"/>
        <lane id=":n11_19_1" index="1" speed="15.00" length="22.70" shape="1988.65,1995.05 2011.35,1995.05"/>
        <lane id=":n11_19_2" index="2" speed="15.00" length="22.70" shape="1988.65,1998.35 2011.35,1998.35"/>
    </edge>
    <edge id=":n11_22" function="internal">
        <lane id=":n11_22_0" index="0" speed="15.00" length="7.47" shape="1988.65,1998.35 1994.34,1999.16 1995.82,2000.05"/>
    </edge>
    <edge id=":n11_23" function="internal">
        <lane id=":n11_23_0" index="0" speed="15.00" length="2.41" shape="1988.65,1998.35 1989.89,1999.18 1990.30,2000.00"/>
    </edge>
    <edge id=":n11_30" function="internal">
        <lane id=":n11_30_0" index="0" speed="15.00" length="13.50" shape="1995.82,2000.05 1998.40,2001.60 2000.84,2005.66 2001.65,2011.35"/>
    </edge>
    <edge id=":n11_31" function="internal">
        <lane id=":n11_31_0" index="0" speed="15.00" length="2.41" shape="1990.30,2000.00 1989.89,2000.83 1988.65,2001.65"/>
    </edge>
    <edge id=":n12_0" function="internal">
        <lane id=":n12_0_0" index="0" speed="15.00" length="5.00" shape="2991.75,2011.35 2991.56,2009.99 2990.97,2009.03 2990.01,2008.44 2988.65,2008.25"/>
    </edge>
    <edge id=":n12_1" function="internal">
        <lane id=":n12_1_0" index="0" speed="15.00" length="22.70" shape="2991.75,2011.35 2991.75,1988.65"/>
        <lane id=":n12_1_1" index="1" speed="15.00" length="22.70" shape="2995.05,2011.35 2995.05,1988.65"/>
        <lane id=":n12_1_2" index="2" speed="15.00" length="22.70" shape="2998.35,2011.35 2998.35,1988.65"/>
    </edge>
    <edge id=":n12_4" function="internal">
        <lane id=":n12_4_0" index="0" speed="15.00" length="2.41" shape="2998.35,2011.35 2999.17,2010.11 3000.00,2009.70"/>
    </edge>
    <edge id=":n12_16" function="internal">
        <lane id=":n12_16_0" index="0" speed="15.00" length="2.41" shape="3000.00,2009.70 3000.82,2010.11 3001.65,2011.35"/>
    </edge>
    <edge id=":n12_5" function="internal">
        <lane id=":n12_5_0" index="0" speed="15.00" length="22.70" shape="3008.25,1988.65 3008.25,2011.35"/>
        <lane id=":n12_5_1" index="1" speed="15.00" length="22.70" shape="3004.95,1988.65 3004.95,2011.35"/>
        <lane id=":n12_5_2" index="2" speed="15.00" length="22.70" shape="3001.65,1988.65 3001.65,2011.35"/>
    </edge>
    <edge id=":n12_8" function="internal">
        <lane id=":n12_8_0" index="0" speed="15.00" length="9.23" shape="3001.65,1988.65 3000.84,1995.78 2999.95,1997.64"/>
    </edge>
    <edge id=":n12_9" function="internal">
        <lane id=":n12_9_0" index="0" speed="15.00" length="7.47" shape="3001.65,1988.65 3000.84,1994.34 2999.95,1995.82"/>
    </edge>
    <edge id=":n12_10" function="internal">
        <lane id=":n12_10_0" index="0" speed="15.00" length="2.41" shape="3001.65,1988.65 3000.83,1989.89 3000.00,1990.30"/>
    </edge>
    <edge id=":n12_17" function="internal">
        <lane id=":n12_17_0" index="0" speed="15.00" length="14.45" shape="2999.95,1997.64 2998.40,2000.88 2994.34,2003.93 2988.65,2004.95"/>
    </edge>
    <edge id=":n12_18" function="internal">
        <lane id=":n12_18_0" index="0" speed="15.00" length="13.50" shape="2999.95,1995.82 2998.40,1998.40 2994.34,2000.84 2988.65,2001.65"/>
    </edge>
    <edge id=":n12_19" function="internal">
        <lane id=":n12_19_0" index="0" speed="15.00" length="2.41" shape="3000.00,1990.30 2999.18,1989.89 2998.35,1988.65"/>
    </edge>
    <edge id=":n12_11" function="internal">
        <lane id=":n12_11_0" index="0" speed="15.00" length="5.00" shape="2988.65,1991.75 2990.01,1991.56 2990.97,1990.97 2991.56,1990.01 2991.75,1988.65"/>
    </edge>
    <edge id=":n12_12" function="internal">
        <lane id=":n12_12_0" index="0" speed="15.00" length="10.32" shape="2988.65,1995.05 2991.45,1994.65 2993.45,1993.45 2994.65,1991.45 2995.05,1988.65"/>
    </edge>
    <edge id=":n12_13" function="internal">
        <lane id=":n12_13_0" index="0" speed="15.00" length="23.69" shape="2988.65,1998.35 2995.78,1999.16 3000.88,2001.60 3003.93,2005.66 3004.95,2011.35"/>
    </edge>
    <edge id=":n12_14" function="internal">
        <lane id=":n12_14_0" index="0" speed="15.00" length="20.97" shape="2988.65,1998.35 2994.34,1999.16 2998.40,2001.60 3000.84,2005.66 3001.65,2011.35"/>
    </edge>
    <edge id=":n12_15" function="internal">
        <lane id=":n12_15_0" index="0" speed="15.00" length="2.41" shape="2988.65,1998.35 2989.89,1999.18 2990.30,2000.00"/>
    </edge>
    <edge id=":n12_20" function="internal">
        <lane id=":n12_20_0" index="0" speed="15.00" length="2.41" shape="2990.30,2000.00 2989.89,2000.83 2988.65,2001.65"/>
    </edge>
    <edge id=":n13_0" function="internal">
        <lane id=":n13_0_0" index="0" speed="15.00" length="29.19" shape="9.85,3008.25 1.93,3007.12 -3.73,3003.72 -7.12,2998.07 -8.25,2990.15"/>
    </edge>
    <edge id=":n13_1" function="internal">
        <lane id=":n13_1_0" index="0" speed="15.00" length="23.87" shape="9.85,3004.95 3.37,3004.03 -1.25,3001.25 -4.03,2996.63 -4.95,2990.15"/>
    </edge>
    <edge id=":n13_2" function="internal">
        <lane id=":n13_2_0" index="0" speed="15.00" length="18.55" shape="9.85,3001.65 4.82,3000.93 1.22,2998.78 -0.93,2995.18 -1.65,2990.15"/>
    </edge>
    <edge id=":n13_3" function="internal">
        <lane id=":n13_3_0" index="0" speed="15.00" length="2.69" shape="9.85,3001.65 8.61,3000.83 8.20,3000.00 8.33,2999.75"/>
    </edge>
    <edge id=":n13_8" function="internal">
        <lane id=":n13_8_0" index="0" speed="15.00" length="2.13" shape="8.33,2999.75 8.61,2999.18 9.85,2998.35"/>
    </edge>
    <edge id=":n13_4" function="internal">
        <lane id=":n13_4_0" index="0" speed="15.00" length="2.58" shape="8.25,2990.15 8.35,2990.85 8.65,2991.35 9.15,2991.65 9.85,2991.75"/>
    </edge>
    <edge id=":n13_5" function="internal">
        <lane id=":n13_5_0" index="0" speed="15.00" length="7.90" shape="4.95,2990.15 5.26,2992.29 6.17,2993.82 7.71,2994.74 9.85,2995.05"/>
    </edge>
    <edge id=":n13_6" function="internal">
        <lane id=":n13_6_0" index="0" speed="15.00" length="13.22" shape="1.65,2990.15 2.16,2993.74 3.70,2996.30 6.26,2997.84 9.85,2998.35"/>
    </edge>
    <edge id=":n13_7" function="internal">
        <lane id=":n13_7_0" index="0" speed="15.00" length="2.20" shape="1.65,2990.15 0.83,2991.39 0.19,2991.71"/>
    </edge>
    <edge id=":n13_9" function="internal">
        <lane id=":n13_9_0" index="0" speed="15.00" length="2.62" shape="0.19,2991.71 0.00,2991.80 -0.83,2991.39 -1.65,2990.15"/>
    </edge>
    <edge id=":n14_0" function="internal">
        <lane id=":n14_0_0" index="0" speed="15.00" length="22.70" shape="1011.35,3008.25 988.65,3008.25"/>
        <lane id=":n14_0_1" index="1" speed="15.00" length="22.70" shape="1011.35,3004.95 988.65,3004.95"/>
        <lane id=":n14_0_2" index="2" speed="15.00" length="22.70" shape="1011.35,3001.65 988.65,3001.65"/>
    </edge>
    <edge id=":n14_3" function="internal">
        <lane id=":n14_3_0" index="0" speed="15.00" length="9.23" shape="1011.35,3001.65 1004.22,3000.84 1002.36,2999.95"/>
    </edge>
    <edge id=":n14_4" function="internal">
        <lane id=":n14_4_0" index="0" speed="15.00" length="7.47" shape="1011.35,3001.65 1005.66,3000.84 1004.18,2999.95"/>
    </edge>
    <edge id=":n14_5" function="internal">
        <lane id=":n14_5_0" index="0" speed="15.00" length="2.41" shape="1011.35,3001.65 1010.11,3000.83 1009.70,3000.00"/>
    </edge>
    <edge id=":n14_16" function="internal">
        <lane id=":n14_16_0" index="0" speed="15.00" length="14.45" shape="1002.36,2999.95 999.13,2998.40 996.07,2994.34 995.05,2988.65"/>
    </edge>
    <edge id=":n14_17" function="internal">
        <lane id=":n14_17_0" index="0" speed="15.00" length="13.50" shape="1004.18,2999.95 1001.60,2998.40 999.16,2994.34 998.35,2988.65"/>
    </edge>
    <edge id=":n14_18" function="internal">
        <lane id=":n14_18_0" index="0" speed="15.00" length="2.41" shape="1009.70,3000.00 1010.11,2999.18 1011.35,2998.35"/>
    </edge>
    <edge id=":n14_6" function="internal">
        <lane id=":n14_6_0" index="0" speed="15.00" length="5.00" shape="1008.25,2988.65 1008.44,2990.01 1009.03,2990.97 1009.99,2991.56 1011.35,2991.75"/>
    </edge>
    <edge id=":n14_7" function="internal">
        <lane id=":n14_7_0" index="0" speed="15.00" length="10.32" shape="1004.95,2988.65 1005.35,2991.45 1006.55,2993.45 1008.55,2994.65 1011.35,2995.05"/>
    </edge>
    <edge id=":n14_8" function="internal">
        <lane id=":n14_8_0" index="0" speed="15.00" length="23.69" shape="1001.65,2988.65 1000.84,2995.78 998.40,3000.88 994.34,3003.93 988.65,3004.95"/>
    </edge>
    <edge id=":n14_9" function="internal">
        <lane id=":n14_9_0" index="0" speed="15.00" length="20.97" shape="1001.65,2988.65 1000.84,2994.34 998.40,2998.40 994.34,3000.84 988.65,3001.65"/>
    </edge>
    <edge id=":n14_10" function="internal">
        <lane id=":n14_10_0" index="0" speed="15.00" length="2.41" shape="1001.65,2988.65 1000.83,2989.89 1000.00,2990.30"/>
    </edge>
    <edge id=":n14_19" function="internal">
        <lane id=":n14_19_0" index="0" speed="15.00" length="2.41" shape="1000.00,2990.30 999.17,2989.89 998.35,2988.65"/>
    </edge>
    <edge id=":n14_11" function="internal">
        <lane id=":n14_11_0" index="0" speed="15.00" length="5.00" shape="988.65,2991.75 990.01,2991.56 990.98,2990.97 991.56,2990.01 991.75,2988.65"/>
    </edge>
    <edge id=":n14_12" function="internal">
        <lane id=":n14_12_0" index="0" speed="15.00" length="22.70" shape="988.65,2991.75 1011.35,2991.75"/>
        <lane id=":n14_12_1" index="1" speed="15.00" length="22.70" shape="988.65,2995.05 1011.35,2995.05"/>
        <lane id=":n14_12_2" index="2" speed="15.00" length="22.70" shape="988.65,2998.35 1011.35,2998.35"/>
    </edge>
    <edge id=":n14_15" function="internal">
        <lane id=":n14_15_0" index="0" speed="15.00" length="2.41" shape="988.65,2998.35 989.89,2999.17 990.30,3000.00"/>
    </edge>
    <edge id=":n14_20" function="internal">
        <lane id=":n14_20_0" index="0" speed="15.00" length="2.41" shape="990.30,3000.00 989.89,3000.82 988.65,3001.65"/>
    </edge>
    <edge id=":n15_0" function="internal">
        <lane id=":n15_0_0" index="0" speed="15.00" length="22.70" shape="2011.35,3008.25 1988.65,3008.25"/>
        <lane id=":n15_0_1" index="1" speed="15.00" length="22.70" shape="2011.35,3004.95 1988.65,3004.95"/>
        <lane id=":n15_0_2" index="2" speed="15.00" length="22.70" shape="2011.35,3001.65 1988.65,3001.65"/>
    </edge>
    <edge id=":n15_3" function="internal">
        <lane id=":n15_3_0" index="0" speed="15.00" length="9.23" shape="2011.35,3001.65 2004.22,3000.84 2002.36,2999.95"/>
    </edge>
    <edge id=":n15_4" function="internal">
        <lane id=":n15_4_0" index="0" speed="15.00" length="7.47" shape="2011.35,3001.65 2005.66,3000.84 2004.18,2999.95"/>
    </edge>
    <edge id=":n15_5" function="internal">
        <lane id=":n15_5_0" index="0" speed="15.00" length="2.41" shape="2011.35,3001.65 2010.11,3000.83 2009.70,3000.00"/>
    </edge>
    <edge id=":n15_16" function="internal">
        <lane id=":n15_16_0" index="0" speed="15.00" length="14.45" shape="2002.36,2999.95 1999.13,2998.40 1996.07,2994.34 1995.05,2988.65"/>
    </edge>
    <edge id=":n15_17" function="internal">
        <lane id=":n15_17_0" index="0" speed="15.00" length="13.50" shape="2004.18,2999.95 2001.60,2998.40 1999.16,2994.34 1998.35,2988.65"/>
    </edge>
    <edge id=":n15_18" function="internal">
        <lane id=":n15_18_0" index="0" speed="15.00" length="2.41" shape="2009.70,3000.00 2010.11,2999.18 2011.35,2998.35"/>
    </edge>
    <edge id=":n15_6" function="internal">
        <lane id=":n15_6_0" index="0" speed="15.00" length="5.00" shape="2008.25,2988.65 2008.44,2990.01 2009.03,2990.97 2009.99,2991.56 2011.35,2991.75"/>
    </edge>
    <edge id=":n15_7" function="internal">
        <lane id=":n15_7_0" index="0" speed="15.00" length="10.32" shape="2004.95,2988.65 2005.35,2991.45 2006.55,2993.45 2008.55,2994.65 2011.35,2995.05"/>
    </edge>
    <edge id=":n15_8" function="internal">
        <lane id=":n15_8_0" index="0" speed="15.00" length="23.69" shape="2001.65,2988.65 2000.84,2995.78 1998.40,3000.88 1994.34,3003.93 1988.65,3004.95"/>
    </edge>
    <edge id=":n15_9" function="internal">
        <lane id=":n15_9_0" index="0" speed="15.00" length="20.97" shape="2001.65,2988.65 2000.84,2994.34 1998.40,2998.40 1994.34,3000.84 1988.65,3001.65"/>
    </edge>
    <edge id=":n15_10" function="internal">
        <lane id=":n15_10_0" index="0" speed="15.00" length="2.41" shape="2001.65,2988.65 2000.83,2989.89 2000.00,2990.30"/>
    </edge>
    <edge id=":n15_19" function="internal">
        <lane id=":n15_19_0" index="0" speed="15.00" length="2.41" shape="2000.00,2990.30 1999.17,2989.89 1998.35,2988.65"/>
    </edge>
    <edge id=":n15_11" function="internal">
        <lane id=":n15_11_0" index="0" speed="15.00" length="5.00" shape="1988.65,2991.75 1990.01,2991.56 1990.97,2990.97 1991.56,2990.01 1991.75,2988.65"/>
    </edge>
    <edge id=":n15_12" function="internal">
        <lane id=":n15_12_0" index="0" speed="15.00" length="22.70" shape="1988.65,2991.75 2011.35,2991.75"/>
        <lane id=":n15_12_1" index="1" speed="15.00" length="22.70" shape="1988.65,2995.05 2011.35,2995.05"/>
        <lane id=":n15_12_2" index="2" speed="15.00" length="22.70" shape="1988.65,2998.35 2011.35,2998.35"/>
    </edge>
    <edge id=":n15_15" function="internal">
        <lane id=":n15_15_0" index="0" speed="15.00" length="2.41" shape="1988.65,2998.35 1989.89,2999.17 1990.30,3000.00"/>
    </edge>
    <edge id=":n15_20" function="internal">
        <lane id=":n15_20_0" index="0" speed="15.00" length="2.41" shape="1990.30,3000.00 1989.89,3000.82 1988.65,3001.65"/>
    </edge>
    <edge id=":n16_0" function="internal">
        <lane id=":n16_0_0" index="0" speed="15.00" length="29.19" shape="3008.25,2990.15 3007.12,2998.07 3003.72,3003.72 2998.07,3007.12 2990.15,3008.25"/>
    </edge>
    <edge id=":n16_1" function="internal">
        <lane id=":n16_1_0" index="0" speed="15.00" length="23.87" shape="3004.95,2990.15 3004.03,2996.63 3001.25,3001.25 2996.63,3004.02 2990.15,3004.95"/>
    </edge>
    <edge id=":n16_2" function="internal">
        <lane id=":n16_2_0" index="0" speed="15.00" length="18.55" shape="3001.65,2990.15 3000.93,2995.18 2998.78,2998.78 2995.18,3000.93 2990.15,3001.65"/>
    </edge>
    <edge id=":n16_3" function="internal">
        <lane id=":n16_3_0" index="0" speed="15.00" length="2.69" shape="3001.65,2990.15 3000.83,2991.39 3000.00,2991.80 2999.75,2991.67"/>
    </edge>
    <edge id=":n16_8" function="internal">
        <lane id=":n16_8_0" index="0" speed="15.00" length="2.13" shape="2999.75,2991.67 2999.18,2991.39 2998.35,2990.15"/>
    </edge>
    <edge id=":n16_4" function="internal">
        <lane id=":n16_4_0" index="0" speed="15.00" length="2.58" shape="2990.15,2991.75 2990.85,2991.65 2991.35,2991.35 2991.65,2990.85 2991.75,2990.15"/>
    </edge>
    <edge id=":n16_5" function="internal">
        <lane id=":n16_5_0" index="0" speed="15.00" length="7.90" shape="2990.15,2995.05 2992.29,2994.74 2993.82,2993.83 2994.74,2992.29 2995.05,2990.15"/>
    </edge>
    <edge id=":n16_6" function="internal">
        <lane id=":n16_6_0" index="0" speed="15.00" length="13.22" shape="2990.15,2998.35 2993.74,2997.84 2996.30,2996.30 2997.84,2993.74 2998.35,2990.15"/>
    </edge>
    <edge id=":n16_7" function="internal">
        <lane id=":n16_7_0" index="0" speed="15.00" length="2.20" shape="2990.15,2998.35 2991.39,2999.17 2991.71,2999.81"/>
    </edge>
    <edge id=":n16_9" function="internal">
        <lane id=":n16_9_0" index="0" speed="15.00" length="2.62" shape="2991.71,2999.81 2991.80,3000.00 2991.39,3000.82 2990.15,3001.65"/>
    </edge>
    <edge id=":n2_0" function="internal">
        <lane id=":n2_0_0" index="0" speed="15.00" length="5.00" shape="991.75,11.35 991.56,9.99 990.98,9.02 990.01,8.44 988.65,8.25"/>
    </edge>
    <edge id=":n2_1" function="internal">
        <lane id=":n2_1_0" index="0" speed="15.00" length="10.32" shape="995.05,11.35 994.65,8.55 993.45,6.55 991.45,5.35 988.65,4.95"/>
    </edge>
    <edge id=":n2_2" function="internal">
        <lane id=":n2_2_0" index="0" speed="15.00" length="23.69" shape="998.35,11.35 999.16,4.22 1001.60,-0.87 1005.66,-3.93 1011.35,-4.95"/>
    </edge>
    <edge id=":n2_3" function="internal">
        <lane id=":n2_3_0" index="0" speed="15.00" length="20.97" shape="998.35,11.35 999.16,5.66 1001.60,1.60 1005.66,-0.84 1011.35,-1.65"/>
    </edge>
    <edge id=":n2_4" function="internal">
        <lane id=":n2_4_0" index="0" speed="15.00" length="2.41" shape="998.35,11.35 999.17,10.11 1000.00,9.70"/>
    </edge>
    <edge id=":n2_16" function="internal">
        <lane id=":n2_16_0" index="0" speed="15.00" length="2.41" shape="1000.00,9.70 1000.83,10.11 1001.65,11.35"/>
    </edge>
    <edge id=":n2_5" function="internal">
        <lane id=":n2_5_0" index="0" speed="15.00" length="5.00" shape="1011.35,8.25 1009.99,8.44 1009.03,9.02 1008.44,9.99 1008.25,11.35"/>
    </edge>
    <edge id=":n2_6" function="internal">
        <lane id=":n2_6_0" index="0" speed="15.00" length="22.70" shape="1011.35,8.25 988.65,8.25"/>
        <lane id=":n2_6_1" index="1" speed="15.00" length="22.70" shape="1011.35,4.95 988.65,4.95"/>
        <lane id=":n2_6_2" index="2" speed="15.00" length="22.70" shape="1011.35,1.65 988.65,1.65"/>
    </edge>
    <edge id=":n2_9" function="internal">
        <lane id=":n2_9_0" index="0" speed="15.00" length="2.41" shape="1011.35,1.65 1010.11,0.83 1009.70,0.00"/>
    </edge>
    <edge id=":n2_17" function="internal">