<?xml version="1.0" encoding="UTF-8"?>

<!-- generated on 04/21/21 14:12:29 by Eclipse SUMO duarouter Version 1.2.0
<configuration xmlns:xsi="http://www.w3.org/2001/XMLSchema-instance" xsi:noNamespaceSchemaLocation="http://sumo.dlr.de/xsd/duarouterConfiguration.xsd">

    <input>
        <net-file value="grid.net.xml"/>
        <route-files value="trips.trips.xml"/>
    </input>

    <output>
        <output-file value="random_vehicle.rou.xml"/>
        <alternatives-output value="random_vehicle.rou.alt.xml"/>
    </output>

    <time>
        <begin value="0"/>
        <end value="200.0"/>
    </time>

    <report>
        <no-warnings value="true"/>
        <ignore-errors value="true"/>
        <no-step-log value="true"/>
    </report>

</configuration>
-->

<routes>

<vType id="iv" accel="2.5" decel="9.0" sigma="0.5" length="4" minGap="0" maxSpeed="10" color="red" probability="1" speedFactor="2"/>

<vehicle id ="0" depart="0" departPos="112">
    <route edges="4to8 8to7 7to6 6to10 10to9 9to13 "/>
</vehicle>
<vehicle id ="1" depart="0" departPos="148">
    <route edges="4to3 3to7 7to11 11to10 10to14 14to13 "/>
</vehicle>
<vehicle id ="2" depart="0" departPos="344">
    <route edges="1to5 5to9 9to10 10to11 11to15 15to16 "/>
</vehicle>
<vehicle id ="3" depart="0" departPos="196">
    <route edges="16to12 12to8 8to4 4to3 3to2 2to1 "/>
</vehicle>
<vehicle id ="4" depart="0" departPos="111">
    <route edges="13to14 14to10 10to6 6to7 7to8 8to4 "/>
</vehicle>
<vehicle id ="5" depart="0" departPos="314">
    <route edges="13to14 14to10 10to6 6to2 2to3 3to4 "/>
</vehicle>
<vehicle id ="6" depart="0" departPos="268">
    <route edges="4to8 8to7 7to6 6to10 10to14 14to13 "/>
</vehicle>
<vehicle id ="7" depart="0" departPos="438">
    <route edges="1to2 2to6 6to10 10to11 11to12 12to16 "/>
</vehicle>
<vehicle id ="8" depart="0" departPos="232">
    <route edges="4to8 8to7 7to6 6to10 10to14 14to13 "/>
</vehicle>
<vehicle id ="9" depart="0" departPos="153">
    <route edges="16to15 15to11 11to10 10to6 6to2 2to1 "/>
</vehicle>
<vehicle id ="10" depart="0" departPos="106">
    <route edges="4to3 3to7 7to11 11to15 15to14 14to13 "/>
</vehicle>
<vehicle id ="11" depart="0" departPos="404">
    <route edges="16to12 12to8 8to4 4to3 3to2 2to1 "/>
</vehicle>
<vehicle id ="12" depart="0" departPos="364">
    <route edges="1to2 2to3 3to7 7to8 8to12 12to16 "/>
</vehicle>
<vehicle id ="13" depart="0" departPos="294">
    <route edges="16to12 12to11 11to7 7to3 3to2 2to1 "/>
</vehicle>
<vehicle id ="14" depart="0" departPos="477">
    <route edges="1to5 5to9 9to10 10to11 11to15 15to16 "/>
</vehicle>
<vehicle id ="15" depart="0" departPos="57">
    <route edges="16to15 15to11 11to10 10to6 6to2 2to1 "/>
</vehicle>
<vehicle id ="16" depart="0" departPos="231">
    <route edges="1to5 5to6 6to7 7to11 11to15 15to16 "/>
</vehicle>
<vehicle id ="17" depart="0" departPos="301">
    <route edges="4to3 3to7 7to6 6to10 10to14 14to13 "/>
</vehicle>
<vehicle id ="18" depart="0" departPos="26">
    <route edges="13to14 14to15 15to11 11to7 7to8 8to4 "/>
</vehicle>
<vehicle id ="19" depart="0" departPos="231">
    <route edges="4to3 3to7 7to6 6to5 5to9 9to13 "/>
</vehicle>
<vehicle id ="20" depart="0" departPos="7">
    <route edges="13to14 14to15 15to11 11to7 7to3 3to4 "/>
</vehicle>
<vehicle id ="21" depart="0" departPos="104">
    <route edges="1to2 2to6 6to10 10to11 11to12 12to16 "/>
</vehicle>
<vehicle id ="22" depart="0" departPos="131">
    <route edges="13to9 9to5 5to1 1to2 2to3 3to4 "/>
</vehicle>
<vehicle id ="23" depart="0" departPos="353">
    <route edges="1to5 5to6 6to7 7to11 11to15 15to16 "/>
</vehicle>
<vehicle id ="24" depart="0" departPos="6">
    <route edges="4to3 3to2 2to1 1to5 5to9 9to13 "/>
</vehicle>
<vehicle id ="25" depart="0" departPos="262">
    <route edges="16to15 15to11 11to7 7to3 3to2 2to1 "/>
</vehicle>
<vehicle id ="26" depart="0" departPos="166">
    <route edges="1to5 5to6 6to10 10to11 11to12 12to16 "/>
</vehicle>
<vehicle id ="27" depart="0" departPos="493">
    <route edges="4to3 3to2 2to6 6to5 5to9 9to13 "/>
</vehicle>
<vehicle id ="28" depart="0" departPos="298">
    <route edges="1to5 5to6 6to7 7to8 8to12 12to16 "/>
</vehicle>
<vehicle id ="29" depart="0" departPos="196">
    <route edges="4to8 8to12 12to16 16to15 15to14 14to13 "/>
</vehicle>
<vehicle id ="30" depart="0" departPos="321">
    <route edges="4to8 8to12 12to11 11to10 10to9 9to13 "/>
</vehicle>
<vehicle id ="31" depart="0" departPos="441">
    <route edges="1to5 5to6 6to7 7to8 8to12 12to16 "/>
</vehicle>
<vehicle id ="32" depart="0" departPos="421">
    <route edges="13to9 9to5 5to6 6to2 2to3 3to4 "/>
</vehicle>
<vehicle id ="33" depart="0" departPos="308">
    <route edges="4to3 3to7 7to6 6to5 5to9 9to13 "/>
</vehicle>
<vehicle id ="34" depart="0" departPos="491">
    <route edges="16to12 12to11 11to10 10to6 6to2 2to1 "/>
</vehicle>
<vehicle id ="35" depart="0" departPos="442">
    <route edges="1to5 5to9 9to10 10to14 14to15 15to16 "/>
</vehicle>
<vehicle id ="36" depart="0" departPos="398">
    <route edges="16to12 12to11 11to7 7to3 3to2 2to1 "/>
</vehicle>
<vehicle id ="37" depart="0" departPos="392">
    <route edges="16to12 12to11 11to10 10to6 6to2 2to1 "/>
</vehicle>
<vehicle id ="38" depart="0" departPos="24">
    <route edges="13to9 9to5 5to6 6to7 7to8 8to4 "/>
</vehicle>
<vehicle id ="39" depart="0" departPos="69">
    <route edges="13to14 14to10 10to11 11to7 7to8 8to4 "/>
</vehicle>
<vehicle id ="40" depart="0" departPos="400">
    <route edges="13to9 9to5 5to6 6to2 2to3 3to4 "/>
</vehicle>
<vehicle id ="41" depart="0" departPos="162">
    <route edges="16to15 15to11 11to10 10to6 6to2 2to1 "/>
</vehicle>
<vehicle id ="42" depart="0" departPos="28">
    <route edges="16to15 15to11 11to7 7to6 6to2 2to1 "/>
</vehicle>
<vehicle id ="43" depart="0" departPos="452">
    <route edges="16to15 15to14 14to10 10to6 6to2 2to1 "/>
</vehicle>
<vehicle id ="44" depart="0" departPos="93">
    <route edges="4to3 3to7 7to6 6to5 5to9 9to13 "/>
</vehicle>
<vehicle id ="45" depart="0" departPos="438">
    <route edges="4to3 3to7 7to11 11to10 10to14 14to13 "/>
</vehicle>
<vehicle id ="46" depart="0" departPos="331">
    <route edges="13to9 9to10 10to11 11to7 7to3 3to4 "/>
</vehicle>
<vehicle id ="47" depart="0" departPos="438">
    <route edges="1to5 5to6 6to7 7to11 11to12 12to16 "/>
</vehicle>
<vehicle id ="48" depart="0" departPos="258">
    <route edges="16to15 15to11 11to10 10to6 6to2 2to1 "/>
</vehicle>
<vehicle id ="49" depart="0" departPos="373">
    <route edges="13to9 9to10 10to11 11to12 12to8 8to4 "/>
</vehicle>
<vehicle id ="50" depart="0" departPos="5">
    <route edges="1to2 2to6 6to10 10to14 14to15 15to16 "/>
</vehicle>
<vehicle id ="51" depart="0" departPos="268">
    <route edges="1to2 2to6 6to10 10to14 14to15 15to16 "/>
</vehicle>
<vehicle id ="52" depart="0" departPos="320">
    <route edges="1to2 2to6 6to10 10to11 11to15 15to16 "/>
</vehicle>
<vehicle id ="53" depart="0" departPos="106">
    <route edges="13to14 14to15 15to11 11to7 7to8 8to4 "/>
</vehicle>
<vehicle id ="54" depart="0" departPos="166">
    <route edges="1to5 5to9 9to10 10to11 11to12 12to16 "/>
</vehicle>
<vehicle id ="55" depart="0" departPos="199">
    <route edges="1to5 5to6 6to10 10to14 14to15 15to16 "/>
</vehicle>
<vehicle id ="56" depart="0" departPos="155">
    <route edges="16to15 15to11 11to10 10to6 6to2 2to1 "/>
</vehicle>
<vehicle id ="57" depart="0" departPos="208">
    <route edges="16to15 15to14 14to13 13to9 9to5 5to1 "/>
</vehicle>
<vehicle id ="58" depart="0" departPos="363">
    <route edges="4to3 3to7 7to6 6to10 10to14 14to13 "/>
</vehicle>
<vehicle id ="59" depart="0" departPos="393">
    <route edges="13to9 9to5 5to6 6to2 2to3 3to4 "/>
</vehicle>
<vehicle id ="60" depart="0" departPos="84">
    <route edges="1to2 2to6 6to7 7to11 11to12 12to16 "/>
</vehicle>
<vehicle id ="61" depart="0" departPos="424">
    <route edges="1to2 2to6 6to7 7to11 11to15 15to16 "/>
</vehicle>
<vehicle id ="62" depart="0" departPos="218">
    <route edges="4to8 8to12 12to11 11to15 15to14 14to13 "/>
</vehicle>
<vehicle id ="63" depart="0" departPos="79">
    <route edges="13to14 14to10 10to11 11to7 7to3 3to4 "/>
</vehicle>
<vehicle id ="64" depart="0" departPos="482">
    <route edges="1to2 2to6 6to7 7to11 11to15 15to16 "/>
</vehicle>
<vehicle id ="65" depart="0" departPos="269">
    <route edges="1to5 5to9 9to10 10to11 11to15 15to16 "/>
</vehicle>
<vehicle id ="66" depart="0" departPos="498">
    <route edges="13to14 14to10 10to6 6to7 7to3 3to4 "/>
</vehicle>
<vehicle id ="67" depart="0" departPos="355">
    <route edges="4to3 3to7 7to11 11to10 10to14 14to13 "/>
</vehicle>
<vehicle id ="68" depart="0" departPos="337">
    <route edges="1to2 2to3 3to7 7to11 11to15 15to16 "/>
</vehicle>
<vehicle id ="69" depart="0" departPos="0">
    <route edges="16to15 15to11 11to7 7to6 6to2 2to1 "/>
</vehicle>
<vehicle id ="70" depart="0" departPos="416">
    <route edges="4to8 8to7 7to11 11to10 10to14 14to13 "/>
</vehicle>
<vehicle id ="71" depart="0" departPos="420">
    <route edges="4to8 8to12 12to11 11to10 10to9 9to13 "/>
</vehicle>
<vehicle id ="72" depart="0" departPos="10">
    <route edges="13to9 9to5 5to6 6to2 2to3 3to4 "/>
</vehicle>
<vehicle id ="73" depart="0" departPos="292">
    <route edges="4to8 8to12 12to11 11to10 10to9 9to13 "/>
</vehicle>
<vehicle id ="74" depart="0" departPos="76">
    <route edges="16to12 12to8 8to4 4to3 3to2 2to1 "/>
</vehicle>
<vehicle id ="75" depart="0" departPos="452">
    <route edges="16to12 12to11 11to7 7to6 6to2 2to1 "/>
</vehicle>
<vehicle id ="76" depart="0" departPos="361">
    <route edges="16to15 15to14 14to10 10to9 9to5 5to1 "/>
</vehicle>
<vehicle id ="77" depart="0" departPos="244">
    <route edges="16to15 15to11 11to7 7to6 6to5 5to1 "/>
</vehicle>
<vehicle id ="78" depart="0" departPos="29">
    <route edges="1to5 5to6 6to10 10to11 11to12 12to16 "/>
</vehicle>
<vehicle id ="79" depart="0" departPos="186">
    <route edges="16to15 15to11 11to7 7to6 6to5 5to1 "/>
</vehicle>
<vehicle id ="80" depart="0" departPos="146">
    <route edges="4to8 8to12 12to11 11to10 10to14 14to13 "/>
</vehicle>
<vehicle id ="81" depart="0" departPos="186">
    <route edges="1to2 2to6 6to7 7to11 11to12 12to16 "/>
</vehicle>
<vehicle id ="82" depart="0" departPos="348">
    <route edges="13to9 9to5 5to6 6to7 7to8 8to4 "/>
</vehicle>
<vehicle id ="83" depart="0" departPos="65">
    <route edges="13to14 14to15 15to11 11to7 7to3 3to4 "/>
</vehicle>
<vehicle id ="84" depart="0" departPos="381">
    <route edges="13to14 14to15 15to11 11to7 7to3 3to4 "/>
</vehicle>
<vehicle id ="85" depart="0" departPos="414">
    <route edges="13to14 14to10 10to6 6to7 7to8 8to4 "/>
</vehicle>
<vehicle id ="86" depart="0" departPos="96">
    <route edges="4to3 3to7 7to6 6to10 10to9 9to13 "/>
</vehicle>
<vehicle id ="87" depart="0" departPos="241">
    <route edges="13to9 9to5 5to6 6to2 2to3 3to4 "/>
</vehicle>
<vehicle id ="88" depart="0" departPos="154">
    <route edges="1to2 2to6 6to7 7to8 8to12 12to16 "/>
</vehicle>
<vehicle id ="89" depart="0" departPos="23">
    <route edges="13to14 14to10 10to6 6to2 2to3 3to4 "/>
</vehicle>
<vehicle id ="90" depart="0" departPos="247">
    <route edges="1to5 5to6 6to10 10to11 11to15 15to16 "/>
</vehicle>
<vehicle id ="91" depart="0" departPos="101">
    <route edges="4to3 3to2 2to1 1to5 5to9 9to13 "/>
</vehicle>
<vehicle id ="92" depart="0" departPos="364">
    <route edges="1to5 5to6 6to10 10to11 11to12 12to16 "/>
</vehicle>
<vehicle id ="93" depart="0" departPos="288">
    <route edges="4to3 3to2 2to6 6to10 10to9 9to13 "/>
</vehicle>
<vehicle id ="94" depart="0" departPos="135">
    <route edges="13to14 14to10 10to6 6to7 7to8 8to4 "/>
</vehicle>
<vehicle id ="95" depart="0" departPos="177">
    <route edges="1to2 2to6 6to10 10to11 11to15 15to16 "/>
</vehicle>
<vehicle id ="96" depart="0" departPos="337">
    <route edges="16to12 12to8 8to4 4to3 3to2 2to1 "/>
</vehicle>
<vehicle id ="97" depart="0" departPos="212">
    <route edges="4to8 8to12 12to11 11to10 10to9 9to13 "/>
</vehicle>
<vehicle id ="98" depart="0" departPos="248">
    <route edges="1to2 2to6 6to10 10to11 11to12 12to16 "/>
</vehicle>
<vehicle id ="99" depart="0" departPos="56">
    <route edges="1to2 2to6 6to10 10to14 14to15 15to16 "/>
</vehicle>
<vehicle id ="100" depart="0" departPos="483">
    <route edges="13to14 14to10 10to11 11to7 7to3 3to4 "/>
</vehicle>
<vehicle id ="101" depart="0" departPos="11">
    <route edges="1to2 2to3 3to4 4to8 8to12 12to16 "/>
</vehicle>
<vehicle id ="102" depart="0" departPos="273">
    <route edges="1to2 2to6 6to10 10to11 11to12 12to16 "/>
</vehicle>
<vehicle id ="103" depart="0" departPos="355">
    <route edges="16to15 15to14 14to10 10to6 6to5 5to1 "/>
</vehicle>
<vehicle id ="104" depart="0" departPos="449">
    <route edges="1to5 5to9 9to10 10to11 11to15 15to16 "/>
</vehicle>
<vehicle id ="105" depart="0" departPos="406">
    <route edges="13to9 9to5 5to6 6to2 2to3 3to4 "/>
</vehicle>
<vehicle id ="106" depart="0" departPos="6">
    <route edges="1to2 2to6 6to7 7to8 8to12 12to16 "/>
</vehicle>
<vehicle id ="107" depart="0" departPos="271">
    <route edges="1to2 2to6 6to7 7to11 11to12 12to16 "/>
</vehicle>
<vehicle id ="108" depart="0" departPos="116">
    <route edges="13to14 14to15 15to11 11to12 12to8 8to4 "/>
</vehicle>
<vehicle id ="109" depart="0" departPos="94">
    <route edges="4to3 3to7 7to6 6to5 5to9 9to13 "/>
</vehicle>
<vehicle id ="110" depart="0" departPos="356">
    <route edges="1to2 2to3 3to7 7to8 8to12 12to16 "/>
</vehicle>
<vehicle id ="111" depart="0" departPos="421">
    <route edges="13to9 9to5 5to6 6to7 7to3 3to4 "/>
</vehicle>
<vehicle id ="112" depart="0" departPos="338">
    <route edges="4to8 8to7 7to11 11to10 10to14 14to13 "/>
</vehicle>
<vehicle id ="113" depart="0" departPos="185">
    <route edges="1to5 5to6 6to7 7to11 11to15 15to16 "/>
</vehicle>
<vehicle id ="114" depart="0" departPos="467">
    <route edges="13to14 14to10 10to6 6to7 7to8 8to4 "/>
</vehicle>
<vehicle id ="115" depart="0" departPos="22">
    <route edges="13to14 14to15 15to11 11to7 7to3 3to4 "/>
</vehicle>
<vehicle id ="116" depart="0" departPos="48">
    <route edges="1to5 5to6 6to7 7to8 8to12 12to16 "/>
</vehicle>
<vehicle id ="117" depart="0" departPos="132">
    <route edges="4to3 3to7 7to6 6to10 10to9 9to13 "/>
</vehicle>
<vehicle id ="118" depart="0" departPos="294">
    <route edges="13to9 9to10 10to6 6to7 7to3 3to4 "/>
</vehicle>
<vehicle id ="119" depart="0" departPos="356">
    <route edges="1to5 5to9 9to10 10to14 14to15 15to16 "/>
</vehicle>
<vehicle id ="120" depart="0" departPos="354">
    <route edges="4to8 8to7 7to6 6to10 10to14 14to13 "/>
</vehicle>
<vehicle id ="121" depart="0" departPos="470">
    <route edges="4to8 8to12 12to16 16to15 15to14 14to13 "/>
</vehicle>
<vehicle id ="122" depart="0" departPos="164">
    <route edges="13to14 14to10 10to6 6to2 2to3 3to4 "/>
</vehicle>
<vehicle id ="123" depart="0" departPos="79">
    <route edges="1to2 2to3 3to7 7to8 8to12 12to16 "/>
</vehicle>
<vehicle id ="124" depart="0" departPos="368">
    <route edges="4to8 8to7 7to6 6to10 10to9 9to13 "/>
</vehicle>
<vehicle id ="125" depart="0" departPos="235">
    <route edges="13to14 14to10 10to11 11to7 7to3 3to4 "/>
</vehicle>
<vehicle id ="126" depart="0" departPos="108">
    <route edges="1to5 5to9 9to13 13to14 14to15 15to16 "/>
</vehicle>
<vehicle id ="127" depart="0" departPos="289">
    <route edges="13to9 9to5 5to6 6to2 2to3 3to4 "/>
</vehicle>
<vehicle id ="128" depart="0" departPos="422">
    <route edges="1to2 2to3 3to7 7to8 8to12 12to16 "/>
</vehicle>
<vehicle id ="129" depart="0" departPos="426">
    <route edges="16to15 15to11 11to10 10to6 6to2 2to1 "/>
</vehicle>
<vehicle id ="130" depart="0" departPos="148">
    <route edges="4to3 3to2 2to6 6to10 10to9 9to13 "/>
</vehicle>
<vehicle id ="131" depart="0" departPos="154">
    <route edges="1to5 5to9 9to13 13to14 14to15 15to16 "/>
</vehicle>
<vehicle id ="132" depart="0" departPos="433">
    <route edges="1to2 2to6 6to7 7to11 11to12 12to16 "/>
</vehicle>
<vehicle id ="133" depart="0" departPos="11">
    <route edges="4to8 8to12 12to11 11to15 15to14 14to13 "/>
</vehicle>
<vehicle id ="134" depart="0" departPos="246">
    <route edges="1to5 5to6 6to7 7to11 11to15 15to16 "/>
</vehicle>
<vehicle id ="135" depart="0" departPos="453">
    <route edges="16to12 12to11 11to10 10to6 6to2 2to1 "/>
</vehicle>
<vehicle id ="136" depart="0" departPos="266">
    <route edges="1to2 2to3 3to7 7to11 11to12 12to16 "/>
</vehicle>
<vehicle id ="137" depart="0" departPos="445">
    <route edges="1to5 5to6 6to10 10to11 11to15 15to16 "/>
</vehicle>
<vehicle id ="138" depart="0" departPos="163">
    <route edges="4to8 8to12 12to11 11to10 10to14 14to13 "/>
</vehicle>
<vehicle id ="139" depart="0" departPos="475">
    <route edges="1to5 5to9 9to10 10to11 11to12 12to16 "/>
</vehicle>
<vehicle id ="140" depart="0" departPos="226">
    <route edges="13to14 14to10 10to11 11to12 12to8 8to4 "/>
</vehicle>
<vehicle id ="141" depart="0" departPos="457">
    <route edges="4to3 3to7 7to11 11to15 15to14 14to13 "/>
</vehicle>
<vehicle id ="142" depart="0" departPos="199">
    <route edges="1to2 2to6 6to10 10to11 11to15 15to16 "/>
</vehicle>
<vehicle id ="143" depart="0" departPos="100">
    <route edges="1to5 5to9 9to10 10to11 11to12 12to16 "/>
</vehicle>
<vehicle id ="144" depart="0" departPos="138">
    <route edges="4to3 3to7 7to6 6to10 10to9 9to13 "/>
</vehicle>
<vehicle id ="145" depart="0" departPos="203">
    <route edges="4to3 3to7 7to6 6to5 5to9 9to13 "/>
</vehicle>
<vehicle id ="146" depart="0" departPos="4">
    <route edges="13to14 14to15 15to16 16to12 12to8 8to4 "/>
</vehicle>
<vehicle id ="147" depart="0" departPos="163">
    <route edges="1to5 5to6 6to7 7to11 11to15 15to16 "/>
</vehicle>
<vehicle id ="148" depart="0" departPos="133">
    <route edges="1to5 5to9 9to10 10to14 14to15 15to16 "/>
</vehicle>
<vehicle id ="149" depart="0" departPos="427">
    <route edges="1to2 2to3 3to7 7to11 11to12 12to16 "/>
</vehicle>
<vehicle id ="150" depart="0" departPos="346">
    <route edges="13to9 9to5 5to6 6to7 7to3 3to4 "/>
</vehicle>
<vehicle id ="151" depart="0" departPos="314">
    <route edges="16to12 12to11 11to10 10to6 6to2 2to1 "/>
</vehicle>
<vehicle id ="152" depart="0" departPos="129">
    <route edges="1to5 5to9 9to10 10to14 14to15 15to16 "/>
</vehicle>
<vehicle id ="153" depart="0" departPos="120">
    <route edges="16to15 15to14 14to10 10to9 9to5 5to1 "/>
</vehicle>
<vehicle id ="154" depart="0" departPos="126">
    <route edges="13to9 9to10 10to11 11to7 7to3 3to4 "/>
</vehicle>
<vehicle id ="155" depart="0" departPos="399">
    <route edges="16to15 15to11 11to7 7to6 6to2 2to1 "/>
</vehicle>
<vehicle id ="156" depart="0" departPos="134">
    <route edges="1to2 2to6 6to10 10to11 11to15 15to16 "/>
</vehicle>
<vehicle id ="157" depart="0" departPos="7">
    <route edges="13to9 9to10 10to6 6to7 7to8 8to4 "/>
</vehicle>
<vehicle id ="158" depart="0" departPos="247">
    <route edges="16to12 12to8 8to7 7to6 6to2 2to1 "/>
</vehicle>
<vehicle id ="159" depart="0" departPos="169">
    <route edges="13to14 14to10 10to11 11to7 7to3 3to4 "/>
</vehicle>
<vehicle id ="160" depart="0" departPos="457">
    <route edges="1to5 5to9 9to10 10to14 14to15 15to16 "/>
</vehicle>
<vehicle id ="161" depart="0" departPos="36">
    <route edges="16to15 15to14 14to10 10to6 6to2 2to1 "/>
</vehicle>
<vehicle id ="162" depart="0" departPos="410">
    <route edges="13to14 14to15 15to11 11to7 7to8 8to4 "/>
</vehicle>
<vehicle id ="163" depart="0" departPos="243">
    <route edges="4to3 3to7 7to11 11to15 15to14 14to13 "/>
</vehicle>
<vehicle id ="164" depart="0" departPos="369">
    <route edges="13to14 14to15 15to11 11to7 7to8 8to4 "/>
</vehicle>
<vehicle id ="165" depart="0" departPos="140">
    <route edges="1to5 5to9 9to10 10to11 11to15 15to16 "/>
</vehicle>
<vehicle id ="166" depart="0" departPos="200">
    <route edges="1to2 2to3 3to4 4to8 8to12 12to16 "/>
</vehicle>
<vehicle id ="167" depart="0" departPos="267">
    <route edges="13to14 14to15 15to11 11to7 7to3 3to4 "/>
</vehicle>
<vehicle id ="168" depart="0" departPos="63">
    <route edges="16to15 15to11 11to10 10to6 6to5 5to1 "/>
</vehicle>
<vehicle id ="169" depart="0" departPos="196">
    <route edges="4to8 8to12 12to16 16to15 15to14 14to13 "/>
</vehicle>
<vehicle id ="170" depart="0" departPos="398">
    <route edges="4to3 3to7 7to11 11to15 15to14 14to13 "/>
</vehicle>
<vehicle id ="171" depart="0" departPos="452">
    <route edges="13to9 9to10 10to6 6to7 7to3 3to4 "/>
</vehicle>
<vehicle id ="172" depart="0" departPos="326">
    <route edges="4to8 8to7 7to6 6to5 5to9 9to13 "/>
</vehicle>
<vehicle id ="173" depart="0" departPos="479">
    <route edges="16to15 15to11 11to7 7to3 3to2 2to1 "/>
</vehicle>
<vehicle id ="174" depart="0" departPos="260">
    <route edges="4to3 3to7 7to11 11to10 10to9 9to13 "/>
</vehicle>
<vehicle id ="175" depart="0" departPos="275">
    <route edges="16to15 15to11 11to10 10to6 6to5 5to1 "/>
</vehicle>
<vehicle id ="176" depart="0" departPos="62">
    <route edges="4to8 8to12 12to16 16to15 15to14 14to13 "/>
</vehicle>
<vehicle id ="177" depart="0" departPos="82">
    <route edges="16to12 12to11 11to7 7to6 6to5 5to1 "/>
</vehicle>
<vehicle id ="178" depart="0" departPos="256">
    <route edges="4to3 3to7 7to11 11to15 15to14 14to13 "/>
</vehicle>
<vehicle id ="179" depart="0" departPos="20">
    <route edges="16to12 12to8 8to7 7to3 3to2 2to1 "/>
</vehicle>
<vehicle id ="180" depart="0" departPos="228">
    <route edges="13to9 9to10 10to6 6to7 7to8 8to4 "/>
</vehicle>
<vehicle id ="181" depart="0" departPos="363">
    <route edges="4to8 8to12 12to11 11to15 15to14 14to13 "/>
</vehicle>
<vehicle id ="182" depart="0" departPos="165">
    <route edges="1to2 2to6 6to10 10to11 11to15 15to16 "/>
</vehicle>
<vehicle id ="183" depart="0" departPos="338">
    <route edges="1to5 5to9 9to10 10to11 11to12 12to16 "/>
</vehicle>
<vehicle id ="184" depart="0" departPos="324">
    <route edges="1to2 2to3 3to7 7to11 11to12 12to16 "/>
</vehicle>
<vehicle id ="185" depart="0" departPos="300">
    <route edges="1to5 5to6 6to10 10to11 11to15 15to16 "/>
</vehicle>
<vehicle id ="186" depart="0" departPos="188">
    <route edges="13to9 9to5 5to1 1to2 2to3 3to4 "/>
</vehicle>
<vehicle id ="187" depart="0" departPos="469">
    <route edges="4to8 8to12 12to16 16to15 15to14 14to13 "/>
</vehicle>
<vehicle id ="188" depart="0" departPos="263">
    <route edges="4to3 3to7 7to11 11to15 15to14 14to13 "/>
</vehicle>
<vehicle id ="189" depart="0" departPos="44">
    <route edges="4to3 3to2 2to6 6to5 5to9 9to13 "/>
</vehicle>
<vehicle id ="190" depart="0" departPos="7">
    <route edges="1to5 5to6 6to7 7to11 11to15 15to16 "/>
</vehicle>
<vehicle id ="191" depart="0" departPos="253">
    <route edges="13to9 9to10 10to11 11to7 7to8 8to4 "/>
</vehicle>
<vehicle id ="192" depart="0" departPos="159">
    <route edges="16to12 12to8 8to7 7to6 6to5 5to1 "/>
</vehicle>
<vehicle id ="193" depart="0" departPos="119">
    <route edges="13to14 14to15 15to16 16to12 12to8 8to4 "/>
</vehicle>
<vehicle id ="194" depart="0" departPos="406">
    <route edges="16to15 15to11 11to10 10to6 6to5 5to1 "/>
</vehicle>
<vehicle id ="195" depart="0" departPos="152">
    <route edges="16to15 15to14 14to10 10to9 9to5 5to1 "/>
</vehicle>
<vehicle id ="196" depart="0" departPos="230">
    <route edges="16to12 12to8 8to7 7to3 3to2 2to1 "/>
</vehicle>
<vehicle id ="197" depart="0" departPos="133">
    <route edges="16to12 12to11 11to10 10to6 6to5 5to1 "/>
</vehicle>
<vehicle id ="198" depart="0" departPos="143">
    <route edges="13to9 9to10 10to11 11to7 7to8 8to4 "/>
</vehicle>
<vehicle id ="199" depart="0" departPos="443">
    <route edges="1to5 5to9 9to13 13to14 14to15 15to16 "/>
</vehicle>
<vehicle id ="200" depart="0" departPos="415">
    <route edges="16to15 15to14 14to10 10to9 9to5 5to1 "/>
</vehicle>
<vehicle id ="201" depart="0" departPos="0">
    <route edges="13to14 14to10 10to11 11to7 7to8 8to4 "/>
</vehicle>
<vehicle id ="202" depart="0" departPos="338">
    <route edges="13to9 9to10 10to6 6to2 2to3 3to4 "/>
</vehicle>
<vehicle id ="203" depart="0" departPos="106">
    <route edges="16to12 12to11 11to7 7to6 6to2 2to1 "/>
</vehicle>
<vehicle id ="204" depart="0" departPos="245">
    <route edges="1to5 5to6 6to7 7to8 8to12 12to16 "/>
</vehicle>
<vehicle id ="205" depart="0" departPos="228">
    <route edges="4to8 8to12 12to16 16to15 15to14 14to13 "/>
</vehicle>
<vehicle id ="206" depart="0" departPos="482">
    <route edges="16to15 15to11 11to10 10to9 9to5 5to1 "/>
</vehicle>
<vehicle id ="207" depart="0" departPos="112">
    <route edges="1to5 5to6 6to10 10to11 11to12 12to16 "/>
</vehicle>
<vehicle id ="208" depart="0" departPos="119">
    <route edges="4to8 8to7 7to6 6to10 10to14 14to13 "/>
</vehicle>
<vehicle id ="209" depart="0" departPos="258">
    <route edges="1to2 2to3 3to7 7to8 8to12 12to16 "/>
</vehicle>
<vehicle id ="210" depart="0" departPos="73">
    <route edges="13to9 9to5 5to6 6to7 7to8 8to4 "/>
</vehicle>
<vehicle id ="211" depart="0" departPos="277">
    <route edges="1to5 5to6 6to10 10to11 11to12 12to16 "/>
</vehicle>
<vehicle id ="212" depart="0" departPos="311">
    <route edges="1to2 2to6 6to7 7to11 11to15 15to16 "/>
</vehicle>
<vehicle id ="213" depart="0" departPos="2">
    <route edges="13to9 9to5 5to6 6to2 2to3 3to4 "/>
</vehicle>
<vehicle id ="214" depart="0" departPos="71">
    <route edges="4to8 8to7 7to6 6to5 5to9 9to13 "/>
</vehicle>
<vehicle id ="215" depart="0" departPos="46">
    <route edges="13to14 14to15 15to11 11to7 7to3 3to4 "/>
</vehicle>
<vehicle id ="216" depart="0" departPos="188">
    <route edges="1to5 5to9 9to10 10to11 11to15 15to16 "/>
</vehicle>
<vehicle id ="217" depart="0" departPos="390">
    <route edges="13to14 14to15 15to11 11to12 12to8 8to4 "/>
</vehicle>
<vehicle id ="218" depart="0" departPos="29">
    <route edges="13to14 14to15 15to11 11to12 12to8 8to4 "/>
</vehicle>
<vehicle id ="219" depart="0" departPos="151">
    <route edges="13to14 14to10 10to11 11to7 7to3 3to4 "/>
</vehicle>
<vehicle id ="220" depart="0" departPos="467">
    <route edges="13to14 14to10 10to6 6to7 7to3 3to4 "/>
</vehicle>
<vehicle id ="221" depart="0" departPos="168">
    <route edges="1to5 5to6 6to10 10to11 11to15 15to16 "/>
</vehicle>
<vehicle id ="222" depart="0" departPos="454">
    <route edges="16to12 12to8 8to4 4to3 3to2 2to1 "/>
</vehicle>
<vehicle id ="223" depart="0" departPos="354">
    <route edges="1to5 5to6 6to10 10to11 11to12 12to16 "/>
</vehicle>
<vehicle id ="224" depart="0" departPos="468">
    <route edges="16to15 15to11 11to7 7to6 6to2 2to1 "/>
</vehicle>
<vehicle id ="225" depart="0" departPos="230">
    <route edges="16to12 12to8 8to7 7to6 6to2 2to1 "/>
</vehicle>
<vehicle id ="226" depart="0" departPos="484">
    <route edges="13to9 9to5 5to6 6to7 7to8 8to4 "/>
</vehicle>
<vehicle id ="227" depart="0" departPos="456">
    <route edges="1to5 5to9 9to10 10to11 11to15 15to16 "/>
</vehicle>
<vehicle id ="228" depart="0" departPos="196">
    <route edges="4to8 8to7 7to11 11to10 10to14 14to13 "/>
</vehicle>
<vehicle id ="229" depart="0" departPos="83">
    <route edges="13to14 14to10 10to6 6to7 7to8 8to4 "/>
</vehicle>
<vehicle id ="230" depart="0" departPos="391">
    <route edges="1to5 5to6 6to7 7to11 11to12 12to16 "/>
</vehicle>
<vehicle id ="231" depart="0" departPos="497">
    <route edges="1to5 5to6 6to7 7to11 11to15 15to16 "/>
</vehicle>
<vehicle id ="232" depart="0" departPos="257">
    <route edges="4to3 3to7 7to11 11to10 10to9 9to13 "/>
</vehicle>
<vehicle id ="233" depart="0" departPos="138">
    <route edges="4to8 8to12 12to11 11to10 10to9 9to13 "/>
</vehicle>
<vehicle id ="234" depart="0" departPos="200">
    <route edges="13to14 14to15 15to11 11to7 7to8 8to4 "/>
</vehicle>
<vehicle id ="235" depart="0" departPos="1">
    <route edges="1to5 5to6 6to10 10to11 11to15 15to16 "/>
</vehicle>
<vehicle id ="236" depart="0" departPos="363">
    <route edges="13to9 9to10 10to6 6to2 2to3 3to4 "/>
</vehicle>
<vehicle id ="237" depart="0" departPos="382">
    <route edges="16to15 15to11 11to10 10to9 9to5 5to1 "/>
</vehicle>
<vehicle id ="238" depart="0" departPos="13">
    <route edges="16to12 12to11 11to7 7to6 6to2 2to1 "/>
</vehicle>
<vehicle id ="239" depart="0" departPos="307">
    <route edges="4to3 3to7 7to6 6to10 10to9 9to13 "/>
</vehicle>
<vehicle id ="240" depart="0" departPos="366">
    <route edges="4to3 3to2 2to6 6to10 10to14 14to13 "/>
</vehicle>
<vehicle id ="241" depart="0" departPos="58">
    <route edges="16to12 12to11 11to10 10to6 6to2 2to1 "/>
</vehicle>
<vehicle id ="242" depart="0" departPos="127">
    <route edges="13to9 9to5 5to6 6to7 7to3 3to4 "/>
</vehicle>
<vehicle id ="243" depart="0" departPos="51">
    <route edges="1to5 5to6 6to7 7to11 11to12 12to16 "/>
</vehicle>
<vehicle id ="244" depart="0" departPos="434">
    <route edges="4to8 8to7 7to6 6to10 10to9 9to13 "/>
</vehicle>
<vehicle id ="245" depart="0" departPos="376">
    <route edges="1to2 2to3 3to7 7to8 8to12 12to16 "/>
</vehicle>
<vehicle id ="246" depart="0" departPos="400">
    <route edges="4to3 3to2 2to6 6to10 10to9 9to13 "/>
</vehicle>
<vehicle id ="247" depart="0" departPos="259">
    <route edges="4to8 8to7 7to11 11to10 10to9 9to13 "/>
</vehicle>
<vehicle id ="248" depart="0" departPos="192">
    <route edges="1to5 5to6 6to10 10to11 11to15 15to16 "/>
</vehicle>
<vehicle id ="249" depart="0" departPos="207">
    <route edges="16to15 15to11 11to7 7to6 6to5 5to1 "/>
</vehicle>
<vehicle id ="250" depart="0" departPos="109">
    <route edges="16to12 12to8 8to7 7to6 6to5 5to1 "/>
</vehicle>
<vehicle id ="251" depart="0" departPos="312">
    <route edges="4to8 8to12 12to11 11to15 15to14 14to13 "/>
</vehicle>
<vehicle id ="252" depart="0" departPos="448">
    <route edges="16to15 15to14 14to10 10to6 6to5 5to1 "/>
</vehicle>
<vehicle id ="253" depart="0" departPos="13">