<configuration>
  <input>
    <net-file value="heterogeneous_upgraded.net.xml"/>
    <route-files value="heterogeneous.rou.xml"/>
    <additional-files value="heterogeneous.add.xml"/>
  </input>
  <time>
    <begin value="0"/>
    <end value="1000"/>
    <step-length value="0.1"/>
  </time>
  <report>
    <verbose value="true"/>
    <no-step-log value="true"/>
  </report>
  <gui_only>
    <gui-settings-file value="gui-settings.xml"/>
   </gui_only>
</configuration>
